Naphthacene_active
  MatStudio         3D                             0

 26 29  0  0  0  0  0  0  0  0999 V2000
    6.2819    6.5662    3.7578 C   0  0  0  0  0  0  0  0  0  1
    7.6351    6.5853    4.1162 C   0  0  0  0  0  0  0  0  0  2
    8.3743    5.3964    4.1231 C   0  0  0  0  0  0  0  0  0  3
    7.7602    4.1883    3.7716 C   0  0  0  0  0  0  0  0  0  4
    6.4070    4.1692    3.4132 C   0  0  0  0  0  0  0  0  0  5
    5.6679    5.3582    3.4063 C   0  0  0  0  0  0  0  0  0  6
    5.7930    2.9612    3.0617 C   0  0  0  0  0  0  0  0  0  7
    4.4398    2.9421    2.7033 C   0  0  0  0  0  0  0  0  0  8
    3.7006    4.1310    2.6963 C   0  0  0  0  0  0  0  0  0  9
    4.3147    5.3391    3.0478 C   0  0  0  0  0  0  0  0  0 10
    3.8257    1.7340    2.3518 C   0  0  0  0  0  0  0  0  0 11
    2.4725    1.7149    1.9933 C   0  0  0  0  0  0  0  0  0 12
    1.7334    2.9039    1.9864 C   0  0  0  0  0  0  0  0  0 13
    2.3474    4.1119    2.3379 C   0  0  0  0  0  0  0  0  0 14
    1.8585    0.5069    1.6418 C   0  0  0  0  0  0  0  0  0 15
    0.5053    0.4878    1.2834 C   0  0  0  0  0  0  0  0  0 16
   -0.2339    1.6767    1.2765 C   0  0  0  0  0  0  0  0  0 17
    0.3802    2.8848    1.6280 C   0  0  0  0  0  0  0  0  0 18
    5.7117    7.4834    3.7524 H   0  0  0  0  0  0  0  0  0 19
    8.3305    3.2711    3.7770 H   0  0  0  0  0  0  0  0  0 22
    6.3632    2.0440    3.0670 H   0  0  0  0  0  0  0  0  0 23
    4.3959    0.8168    2.3571 H   0  0  0  0  0  0  0  0  0 24
    2.4287   -0.4103    1.6472 H   0  0  0  0  0  0  0  0  0 25
   -0.1900    3.8019    1.6226 H   0  0  0  0  0  0  0  0  0 28
    1.7772    5.0291    2.3326 H   0  0  0  0  0  0  0  0  0 29
    3.7445    6.2563    3.0425 H   0  0  0  0  0  0  0  0  0 30
  1  2  4  0  0  0
  1  6  4  0  0  0
  1 19  1  0  0  0
  2  3  4  0  0  0
  3  4  4  0  0  0
  4  5  4  0  0  0
  4 20  1  0  0  0
  5  6  4  0  0  0
  5  7  4  0  0  0
  6 10  4  0  0  0
  7  8  4  0  0  0
  7 21  1  0  0  0
  8  9  4  0  0  0
  8 11  4  0  0  0
  9 10  4  0  0  0
  9 14  4  0  0  0
 10 26  1  0  0  0
 11 12  4  0  0  0
 11 22  1  0  0  0
 12 13  4  0  0  0
 12 15  4  0  0  0
 13 14  4  0  0  0
 13 18  4  0  0  0
 14 25  1  0  0  0
 15 16  4  0  0  0
 15 23  1  0  0  0
 16 17  4  0  0  0
 17 18  4  0  0  0
 18 24  1  0  0  0
M  END
