perhydropyrene_active
  MatStudio         3D                             0

 22 25  0  0  0  0  0  0  0  0999 V2000
   -2.4949    8.8173   -0.4218 C   0  0  0  0  0  0  0  0  0  0
   -1.3808    7.7161   -0.4431 C   0  0  0  0  0  0  0  0  0  0
    0.0197    8.2754   -0.0664 C   0  0  0  0  0  0  0  0  0  0
    0.2802    9.5900   -0.8151 C   0  0  0  0  0  0  0  0  0  0
   -0.7526   10.6780   -0.4372 C   0  0  0  0  0  0  0  0  0  0
   -2.0252   10.1268    0.2400 C   0  0  0  0  0  0  0  0  0  0
   -3.8169    8.3284    0.1957 C   0  0  0  0  0  0  0  0  0  0
   -4.1153    6.8998   -0.2599 C   0  0  0  0  0  0  0  0  0  0
   -3.1210    5.9172    0.3841 C   0  0  0  0  0  0  0  0  0  0
   -1.6586    6.4749    0.4490 C   0  0  0  0  0  0  0  0  0  0
    1.1112    7.2200   -0.3372 C   0  0  0  0  0  0  0  0  0  0
    0.8213    5.9200    0.4388 C   0  0  0  0  0  0  0  0  0  0
   -0.5920    5.3947    0.1169 C   0  0  0  0  0  0  0  0  0  0
   -3.2003    4.5309   -0.2836 C   0  0  0  0  0  0  0  0  0  0
   -2.2792    3.5091    0.4178 C   0  0  0  0  0  0  0  0  0  0
   -0.9161    4.0913    0.8597 C   0  0  0  0  0  0  0  0  0  0
   -2.7208    9.0688   -1.5105 H   0  0  0  0  0  0  0  0  0  0
   -1.3082    7.3408   -1.5171 H   0  0  0  0  0  0  0  0  0  0
    0.0189    8.5015    1.0509 H   0  0  0  0  0  0  0  0  0  0
   -3.4605    5.7755    1.4631 H   0  0  0  0  0  0  0  0  0  0
   -1.4766    6.7970    1.5273 H   0  0  0  0  0  0  0  0  0  0
   -0.6421    5.1835   -1.0022 H   0  0  0  0  0  0  0  0  0  0
  3  2  1  0  0  0
  4  3  1  0  0  0
  5  4  1  0  0  0
  6  5  1  0  0  0
  1  2  1  0  0  0
  1  6  1  0  0  0
  8  7  1  0  0  0
  9  8  1  0  0  0
 10  9  1  0  0  0
  1  7  1  0  0  0
  2 10  1  0  0  0
 12 11  1  0  0  0
 13 12  1  0  0  0
  3 11  1  0  0  0
 10 13  1  0  0  0
 15 14  1  0  0  0
 16 15  1  0  0  0
 13 16  1  0  0  0
  9 14  1  0  0  0
  1 17  1  0  0  0
  2 18  1  0  0  0
  3 19  1  0  0  0
  9 20  1  0  0  0
 10 21  1  0  0  0
 13 22  1  0  0  0
M  END
