42

C         -2.49430        8.81770       -0.42260
C         -1.38030        7.71700       -0.44290
C          0.01970        8.27710       -0.06660
C          0.27740        9.59350       -0.81280
C         -0.75280       10.68000       -0.42390
C         -2.02820       10.12500        0.24590
C         -3.81860        8.32650        0.18790
C         -4.11270        6.89690       -0.26790
C         -3.12010        5.91740        0.38280
C         -1.65790        6.47590        0.44950
C          1.11130        7.22340       -0.34090
C          0.82320        5.92270        0.43520
C         -0.59070        5.39620        0.11660
C         -3.19700        4.52820       -0.27960
C         -2.27870        3.51080        0.43050
C         -0.91110        4.09210        0.86070
H         -2.71630        9.07770       -1.48410
H         -1.33130        7.35760       -1.49790
H          0.05190        8.50210        1.02440
H          0.22440        9.40970       -1.90920
H          1.30130        9.96280       -0.58590
H         -2.83190       10.89110        0.17900
H         -1.83170        9.94160        1.32530
H         -4.04930        6.83970       -1.37750
H         -5.14980        6.62300        0.02630
H         -3.46450        5.77710        1.43410
H         -1.50400        6.79310        1.50820
H          1.16310        7.00390       -1.43030
H          2.10100        7.61900       -0.02450
H         -0.61540        5.16970       -0.97420
H         -4.24270        4.15130       -0.24860
H         -2.90440        4.60810       -1.35000
H         -0.11600        3.33970        0.66310
H         -0.92180        4.28860        1.95590
H         -1.03970       11.24270       -1.33870
H         -0.27910       11.40580        0.27310
H         -3.77370        8.36060        1.29960
H         -4.64530        8.99400       -0.14020
H          0.92050        6.11230        1.52710
H          1.57970        5.15960        0.15060
H         -2.11490        2.65090       -0.25510
H         -2.79940        3.11610        1.33060
