32

C         -2.49490        8.81730       -0.42180
C         -1.38080        7.71610       -0.44310
C          0.01970        8.27540       -0.06640
C          0.28020        9.59000       -0.81510
C         -0.75260       10.67800       -0.43720
C         -2.02520       10.12680        0.24000
C         -3.81690        8.32840        0.19570
C         -4.11530        6.89980       -0.25990
C         -3.12100        5.91720        0.38410
C         -1.65860        6.47490        0.44900
C          1.11120        7.22000       -0.33720
C          0.82130        5.92000        0.43880
C         -0.59200        5.39470        0.11690
C         -3.20030        4.53090       -0.28360
C         -2.27920        3.50910        0.41780
C         -0.91610        4.09130        0.85970
H         -2.72080        9.06890       -1.51050
H         -1.30830        7.34090       -1.51710
H          0.01890        8.50150        1.05100
H          0.22510        9.39720       -1.93730
H         -3.46050        5.77550        1.46310
H         -1.47650        6.79690        1.52730
H          1.14430        6.99170       -1.45360
H         -0.64210        5.18340       -1.00220
H         -1.05530       11.23870       -1.38250
H         -3.73480        8.35300        1.33250
H         -4.02520        6.83870       -1.39470
H          0.90060        6.12440        1.55750
H         -1.81040        9.91820        1.34000
H         -2.88740        4.63840       -1.37450
H         -2.79510        3.11230        1.35380
H         -0.94120        4.31080        1.97810
